         642

H   0.0000   3.0000   4.8541
H   0.0000  -3.0000   4.8541
H   0.0000   3.0000  -4.8541
H   0.0000  -3.0000  -4.8541
H   4.8541   0.0000   3.0000
H  -4.8541   0.0000   3.0000
H   4.8541   0.0000  -3.0000
H  -4.8541   0.0000  -3.0000
H   3.0000   4.8541   0.0000
H  -3.0000   4.8541   0.0000
H   3.0000  -4.8541   0.0000
H  -3.0000  -4.8541   0.0000
H   0.0000   0.0000   5.7063
H   2.8532   1.7634   4.6165
H   2.8532  -1.7634   4.6165
H   0.0000   0.0000   5.7063
H  -2.8532   1.7634   4.6165
H  -2.8532  -1.7634   4.6165
H   2.8532   1.7634   4.6165
H   1.7634   4.6165   2.8532
H   4.6165   2.8532   1.7634
H  -2.8532   1.7634   4.6165
H  -1.7634   4.6165   2.8532
H  -4.6165   2.8532   1.7634
H   1.7634   4.6165   2.8532
H  -1.7634   4.6165   2.8532
H   0.0000   5.7063   0.0000
H   2.8532  -1.7634   4.6165
H   1.7634  -4.6165   2.8532
H   4.6165  -2.8532   1.7634
H  -2.8532  -1.7634   4.6165
H  -1.7634  -4.6165   2.8532
H  -4.6165  -2.8532   1.7634
H   1.7634  -4.6165   2.8532
H  -1.7634  -4.6165   2.8532
H   0.0000  -5.7063   0.0000
H   0.0000   0.0000  -5.7063
H   2.8532   1.7634  -4.6165
H   2.8532  -1.7634  -4.6165
H   0.0000   0.0000  -5.7063
H  -2.8532   1.7634  -4.6165
H  -2.8532  -1.7634  -4.6165
H   0.0000   1.5594   5.4891
H   1.4830   2.4759   4.9227
H   1.5000   0.9271   5.4271
H   0.0000   1.5594   5.4891
H  -1.4830   2.4759   4.9227
H  -1.5000   0.9271   5.4271
H   1.4830   2.4759   4.9227
H   0.9166   3.9589   4.0061
H   2.4271   3.3541   3.9271
H  -1.4830   2.4759   4.9227
H  -0.9166   3.9589   4.0061
H  -2.4271   3.3541   3.9271
H   0.9166   3.9589   4.0061
H  -0.9166   3.9589   4.0061
H   0.0000   4.8541   3.0000
H   1.4830  -2.4759   4.9227
H   0.9166  -3.9589   4.0061
H   2.4271  -3.3541   3.9271
H  -1.4830  -2.4759   4.9227
H  -0.9166  -3.9589   4.0061
H  -2.4271  -3.3541   3.9271
H   0.9166  -3.9589   4.0061
H  -0.9166  -3.9589   4.0061
H   0.0000  -4.8541   3.0000
H   0.0000   1.5594  -5.4891
H   1.4830   2.4759  -4.9227
H   1.5000   0.9271  -5.4271
H   0.0000   1.5594  -5.4891
H  -1.4830   2.4759  -4.9227
H  -1.5000   0.9271  -5.4271
H   0.0000   5.6518   0.7872
H   1.4916   5.5075   0.0690
H   0.7513   2.0442   5.2744
H   0.0000   5.6518   0.7872
H  -1.4916   5.5075   0.0690
H  -0.7513   2.0442   5.2744
H   1.4916   5.5075   0.0690
H   0.7398   5.6166  -0.6844
H   1.2156   3.2598   4.5231
H  -5.3752  -1.8995   0.2486
H  -3.3220   3.4756  -3.0735
H  -1.2156   3.2598   4.5231
H   3.3220   3.4756  -3.0735
H  -3.3220   3.4756  -3.0735
H   0.0000   4.0110   4.0588
H   1.4916  -5.5075   0.0690
H   0.7398  -5.6166  -0.6844
H   1.2156  -3.2598   4.5231
H   2.1472  -1.5770   5.0463
H   2.5080  -2.5216   4.4625
H  -1.2156  -3.2598   4.5231
H   3.3254  -2.2814   4.0373
H   2.5080  -2.5216   4.4625
H   0.0000  -4.0110   4.0588
H  -4.8821   1.5683  -2.5035
H  -4.1788   3.0691  -2.3834
H   0.7513   2.0442  -5.2744
H  -4.8821   1.5683  -2.5035
H  -5.1148   1.9983  -1.5518
H  -0.7513   2.0442  -5.2744
H   0.0000  -1.5594   5.4891
H   1.5000  -0.9271   5.4271
H   1.4830  -2.4759   4.9227
H   3.0000   0.0000   4.8541
H   4.0061   0.9166   3.9589
H   4.0061  -0.9166   3.9589
H   1.5000  -0.9271   5.4271
H   1.5000   0.9271   5.4271
H   3.0000   0.0000   4.8541
H   0.0000  -1.5594   5.4891
H  -1.5000  -0.9271   5.4271
H  -1.4830  -2.4759   4.9227
H  -3.0000   0.0000   4.8541
H  -4.0061   0.9166   3.9589
H  -4.0061  -0.9166   3.9589
H  -1.5000  -0.9271   5.4271
H  -1.5000   0.9271   5.4271
H  -3.0000   0.0000   4.8541
H   4.0061   0.9166   3.9589
H   3.9271   2.4271   3.3541
H   4.9227   1.4830   2.4759
H   3.3541   3.9271   2.4271
H   2.4759   4.9227   1.4830
H   3.9589   4.0061   0.9166
H   3.9271   2.4271   3.3541
H   2.4271   3.3541   3.9271
H   3.3541   3.9271   2.4271
H  -4.0061   0.9166   3.9589
H  -3.9271   2.4271   3.3541
H  -4.9227   1.4830   2.4759
H  -3.3541   3.9271   2.4271
H  -2.4759   4.9227   1.4830
H  -3.9589   4.0061   0.9166
H  -3.9271   2.4271   3.3541
H  -2.4271   3.3541   3.9271
H  -3.3541   3.9271   2.4271
H   2.4759   4.9227   1.4830
H   0.9271   5.4271   1.5000
H   1.5594   5.4891   0.0000
H  -0.9271   5.4271   1.5000
H  -2.4759   4.9227   1.4830
H  -1.5594   5.4891   0.0000
H   0.9271   5.4271   1.5000
H   0.0000   4.8541   3.0000
H  -0.9271   5.4271   1.5000
H   4.0061  -0.9166   3.9589
H   3.9271  -2.4271   3.3541
H   4.9227  -1.4830   2.4759
H   3.3541  -3.9271   2.4271
H   2.4759  -4.9227   1.4830
H   3.9589  -4.0061   0.9166
H   3.9271  -2.4271   3.3541
H   2.4271  -3.3541   3.9271
H   3.3541  -3.9271   2.4271
H  -4.0061  -0.9166   3.9589
H  -3.9271  -2.4271   3.3541
H  -4.9227  -1.4830   2.4759
H  -3.3541  -3.9271   2.4271
H  -2.4759  -4.9227   1.4830
H  -3.9589  -4.0061   0.9166
H   0.0000   2.3017   5.2215
H   0.7487   2.7644   4.9356
H   0.7513   2.0442   5.2744
H   0.0000   2.3017   5.2215
H  -0.7487   2.7644   4.9356
H  -0.7513   2.0442   5.2744
H   0.7487   2.7644   4.9356
H   0.4627   3.5131   4.4729
H   1.2156   3.2598   4.5231
H  -0.7487   2.7644   4.9356
H  -0.4627   3.5131   4.4729
H  -1.2156   3.2598   4.5231
H   0.4627   3.5131   4.4729
H  -0.4627   3.5131   4.4729
H   0.0000   4.0110   4.0588
H   0.7487  -2.7644   4.9356
H   0.4627  -3.5131   4.4729
H   1.2156  -3.2598   4.5231
H  -0.7487  -2.7644   4.9356
H  -0.4627  -3.5131   4.4729
H  -1.2156  -3.2598   4.5231
H   0.4627  -3.5131   4.4729
H  -0.4627  -3.5131   4.4729
H   0.0000  -4.0110   4.0588
H   0.0000   2.3017  -5.2215
H   0.7487   2.7644  -4.9356
H   0.7513   2.0442  -5.2744
H   0.0000   2.3017  -5.2215
H  -0.7487   2.7644  -4.9356
H  -0.7513   2.0442  -5.2744
H   0.0000   5.1642  -2.4275
H   0.8620   4.9165  -2.7653
H   0.7538   5.6398   0.4327
H   0.0000   5.1642  -2.4275
H  -0.8620   4.9165  -2.7653
H  -0.7538   5.6398   0.4327
H   0.8620   4.9165  -2.7653
H   0.4110   4.7878  -3.0774
H   1.1206   5.5867  -0.3091
H  -3.5630  -3.2477  -3.0528
H  -2.2020   0.3153  -5.2549
H  -5.3484   0.9692  -1.7372
H   2.2020   0.3153  -5.2549
H  -2.2020   0.3153  -5.2549
H   0.0000   4.2747  -3.7801
H   0.8620  -4.9165  -2.7653
H   0.4110  -4.7878  -3.0774
H   1.1206  -5.5867  -0.3091
H   3.7055  -0.8346   4.2585
H   3.8964  -1.3346   3.9496
H   2.3399  -2.0601   4.7795
H   4.2321  -1.1804   3.6412
H   3.8964  -1.3346   3.9496
H   2.9269  -2.4099   4.2648
H  -5.6266   0.9064   0.2869
H  -5.3917   1.8320   0.3681
H  -4.5793   2.3437  -2.4698
H  -5.6266   0.9064   0.2869
H  -5.5391   1.1104   0.8047
H  -5.0206   1.7912  -2.0366
H   0.0000  -0.7872   5.6518
H   0.7593  -0.4693   5.6361
H   0.7578  -1.2561   5.5146
H   2.9631   0.8927   4.7943
H   3.4628   1.3529   4.3291
H   3.5393   0.4630   4.4521
H   0.7593  -0.4693   5.6361
H   0.7593   0.4693   5.6361
H   1.5202   0.0000   5.5001
H   0.0000  -0.7872   5.6518
H  -0.7593  -0.4693   5.6361
H  -0.7578  -1.2561   5.5146
H  -2.9631   0.8927   4.7943
H  -3.4628   1.3529   4.3291
H  -3.5393   0.4630   4.4521
H  -0.7593  -0.4693   5.6361
H  -0.7593   0.4693   5.6361
H  -1.5202   0.0000   5.5001
H   3.4628   1.3529   4.3291
H   3.4324   2.1213   4.0350
H   4.0076   1.6891   3.6944
H   2.5906   4.3250   2.6730
H   2.1401   4.8156   2.1890
H   2.9452   4.4706   1.9753
H   3.4324   2.1213   4.0350
H   2.6730   2.5906   4.3250
H   3.2198   2.9295   3.6896
H  -3.4628   1.3529   4.3291
H  -3.4324   2.1213   4.0350
H  -4.0076   1.6891   3.6944
H  -2.5906   4.3250   2.6730
H  -2.1401   4.8156   2.1890
H  -2.9452   4.4706   1.9753
H  -3.4324   2.1213   4.0350
H  -2.6730   2.5906   4.3250
H  -3.2198   2.9295   3.6896
H   2.1401   4.8156   2.1890
H   1.3620   5.0844   2.2037
H   1.7191   5.2284   1.5069
H  -1.3620   5.0844   2.2037
H  -2.1401   4.8156   2.1890
H  -1.7191   5.2284   1.5069
H   1.3620   5.0844   2.2037
H   0.8927   4.7943   2.9631
H   0.4698   5.2098   2.2803
H   3.4628  -1.3529   4.3291
H   3.4324  -2.1213   4.0350
H   4.0076  -1.6891   3.6944
H   2.5906  -4.3250   2.6730
H   2.1401  -4.8156   2.1890
H   2.9452  -4.4706   1.9753
H   3.4324  -2.1213   4.0350
H   2.6730  -2.5906   4.3250
H   3.2198  -2.9295   3.6896
H  -3.4628  -1.3529   4.3291
H  -3.4324  -2.1213   4.0350
H  -4.0076  -1.6891   3.6944
H  -2.5906  -4.3250   2.6730
H  -2.1401  -4.8156   2.1890
H  -2.9452  -4.4706   1.9753
H  -1.5872   0.2995   5.4730
H  -1.2214   0.5810   5.5437
H   0.3756   2.5414   5.0953
H   1.1723  -1.5390   5.3684
H   0.7175  -1.3097   5.5075
H  -0.3756   2.5414   5.0953
H  -0.7175  -1.3097   5.5075
H  -0.9867  -0.8371   5.5577
H   0.6077   3.1491   4.7198
H   0.7175  -1.3097   5.5075
H   0.9867  -0.8371   5.5577
H  -0.6077   3.1491   4.7198
H   0.7037   5.3430  -1.8760
H  -0.7037   5.3430  -1.8760
H   0.0000   3.5247   4.4877
H   5.4780  -1.5225   0.4853
H   5.0431  -2.6611  -0.2185
H   0.6077  -3.1491   4.7198
H  -1.4404  -5.3187  -1.4829
H  -0.7037  -5.3430  -1.8760
H  -0.6077  -3.1491   4.7198
H   0.7037  -5.3430  -1.8760
H  -0.7037  -5.3430  -1.8760
H   0.0000  -3.5247   4.4877
H  -1.4773   2.1048  -5.0941
H  -1.1142   2.3971  -5.0571
H   0.3756   2.5414  -5.0953
H   0.0000   1.1761  -5.5838
H  -0.3877   1.4314  -5.5103
H  -0.3756   2.5414  -5.0953
H   0.0000   5.1933   2.3648
H   0.6949   5.2208   2.1959
H   0.4325   5.0582  -2.6056
H   1.0354   5.3343   1.7421
H   0.4587   5.4601   1.5934
H  -0.4325   5.0582  -2.6056
H   0.6949   5.2208   2.1959
H   0.3448   5.3245   2.0231
H   0.6373   4.8581  -2.9250
H  -4.3868  -2.0787   2.9996
H  -4.3309   3.6869   0.4607
H  -3.1245  -1.5893  -4.5026
H   1.4141   5.4896  -0.6534
H  -4.5371   3.4365  -0.4090
H   0.0000   0.3418  -5.6961
H   1.1158  -4.3457   3.5259
H   0.5791  -4.5480   3.3975
H   0.6373  -4.8581  -2.9250
H   2.7741   0.8775   4.9088
H   2.9408   0.6239   4.8502
H   3.8065  -1.0862   4.1101
H   3.0513   1.6467   4.5321
H   2.8427   1.5500   4.6988
H   4.0679  -1.2586   3.7987
H  -3.1667   2.5849   3.9815
H  -2.8366   3.1263   3.8396
H  -5.5287   1.3740   0.3287
H  -4.2974   2.0444   3.1489
H  -4.1117   2.0999   3.3536
H  -5.5897   1.0096   0.5465
H  -0.5124   1.7733   5.3996
H  -0.0875   1.9417   5.3651
H   0.3807  -0.6299   5.6587
H   0.8128   1.8500   5.3366
H   1.1068   2.1406   5.1725
H   3.2213   1.1257   4.5737
H   0.9204   1.9165   5.2955
H   0.8903   2.3524   5.1221
H   0.7619   0.0000   5.6552
H  -0.5124   1.7733   5.3996
H  -0.9204   1.9165   5.2955
H  -0.3807  -0.6299   5.6587
H  -1.1387   2.6995   4.8967
H  -1.4235   2.9698   4.6601
H  -3.2213   1.1257   4.5737
H   0.3759  -1.5298   5.4846
H   0.3834  -1.0630   5.5933
H  -0.7619   0.0000   5.6552
H   2.5579  -1.5222   4.8685
H   2.6614  -1.1246   4.9208
H   3.4566   1.7416   4.1930
H   2.6370   1.1970   4.9169
H   2.4858   1.6052   4.8792
H   2.3715   4.5823   2.4374
H   1.2125  -0.2206   5.5717
H   0.7282   0.0702   5.6592
H   3.0631   2.3640   4.1942
H  -2.5579  -1.5222   4.8685
H  -2.6614  -1.1246   4.9208
H  -3.4566   1.7416   4.1930
H  -2.6370   1.1970   4.9169
H  -2.4858   1.6052   4.8792
H  -2.3715   4.5823   2.4374
H  -1.6647  -1.2160   5.3209
H  -1.1623  -0.9054   5.5129
H  -3.0631   2.3640   4.1942
H   1.0956   0.7671   5.5474
H   0.4017   1.0151   5.6009
H   1.7556   4.9629   2.2021
H  -0.4017   1.0151   5.6009
H  -1.0956   0.7671   5.5474
H  -1.7556   4.9629   2.2021
H   1.0313   5.0308  -2.4878
H   0.7387   5.2580  -2.0905
H   1.1312   4.9562   2.5922
H   5.5270   1.2550  -0.6633
H   5.6014   0.4041  -1.0116
H   3.4566  -1.7416   4.1930
H   3.1311  -3.3427  -3.4037
H   2.3916  -3.6389  -3.6879
H   2.3715  -4.5823   2.4374
H   5.1955  -0.8506  -2.2011
H   4.9323  -1.9029  -2.1480
H   3.0631  -2.3640   4.1942
H  -5.5270   1.2550  -0.6633
H  -5.6014   0.4041  -1.0116
H  -3.4566  -1.7416   4.1930
H  -3.1311  -3.3427  -3.4037
H  -2.3916  -3.6389  -3.6879
H  -2.3715  -4.5823   2.4374
H   0.0000   0.7872   5.6518
H   0.7578   1.2561   5.5146
H   0.7593   0.4693   5.6361
H   1.5069   1.7191   5.2284
H   2.1890   2.1401   4.8156
H   2.2037   1.3620   5.0844
H   0.7578   1.2561   5.5146
H   0.7513   2.0442   5.2744
H   1.5069   1.7191   5.2284
H   0.0000   0.7872   5.6518
H  -0.7578   1.2561   5.5146
H  -0.7593   0.4693   5.6361
H  -1.5069   1.7191   5.2284
H  -2.1890   2.1401   4.8156
H  -2.2037   1.3620   5.0844
H  -0.7578   1.2561   5.5146
H  -0.7513   2.0442   5.2744
H  -1.5069   1.7191   5.2284
H   2.1890   2.1401   4.8156
H   1.9753   2.9452   4.4706
H   2.6730   2.5906   4.3250
H   1.6891   3.6944   4.0076
H   1.3529   4.3291   3.4628
H   2.1213   4.0350   3.4324
H   1.9753   2.9452   4.4706
H   1.2156   3.2598   4.5231
H   1.6891   3.6944   4.0076
H  -2.1890   2.1401   4.8156
H  -1.9753   2.9452   4.4706
H  -2.6730   2.5906   4.3250
H  -1.6891   3.6944   4.0076
H  -1.3529   4.3291   3.4628
H  -2.1213   4.0350   3.4324
H  -1.9753   2.9452   4.4706
H  -1.2156   3.2598   4.5231
H  -1.6891   3.6944   4.0076
H   1.3529   4.3291   3.4628
H   0.4630   4.4521   3.5393
H   0.8927   4.7943   2.9631
H  -0.4630   4.4521   3.5393
H  -1.3529   4.3291   3.4628
H  -0.8927   4.7943   2.9631
H   0.4630   4.4521   3.5393
H   0.0000   4.0110   4.0588
H  -0.4630   4.4521   3.5393
H   2.1890  -2.1401   4.8156
H   1.9753  -2.9452   4.4706
H   2.6730  -2.5906   4.3250
H   1.6891  -3.6944   4.0076
H   1.3529  -4.3291   3.4628
H   2.1213  -4.0350   3.4324
H   1.9753  -2.9452   4.4706
H   1.2156  -3.2598   4.5231
H   1.6891  -3.6944   4.0076
H  -2.1890  -2.1401   4.8156
H  -1.9753  -2.9452   4.4706
H  -2.6730  -2.5906   4.3250
H  -1.6891  -3.6944   4.0076
H  -1.3529  -4.3291   3.4628
H  -2.1213  -4.0350   3.4324
H  -1.9753  -2.9452   4.4706
H  -1.2156  -3.2598   4.5231
H  -1.6891  -3.6944   4.0076
H   1.3529  -4.3291   3.4628
H   0.4630  -4.4521   3.5393
H   0.8927  -4.7943   2.9631
H  -0.4630  -4.4521   3.5393
H  -1.3529  -4.3291   3.4628
H  -0.8927  -4.7943   2.9631
H   0.4630  -4.4521   3.5393
H   0.0000  -4.0110   4.0588
H  -0.4630  -4.4521   3.5393
H   0.0000   0.7872  -5.6518
H   0.7578   1.2561  -5.5146
H   0.7593   0.4693  -5.6361
H   1.5069   1.7191  -5.2284
H   2.1890   2.1401  -4.8156
H   2.2037   1.3620  -5.0844
H   0.7578   1.2561  -5.5146
H   0.7513   2.0442  -5.2744
H   1.5069   1.7191  -5.2284
H   0.0000   0.7872  -5.6518
H  -0.7578   1.2561  -5.5146
H  -0.7593   0.4693  -5.6361
H  -1.5069   1.7191  -5.2284
H  -2.1890   2.1401  -4.8156
H  -2.2037   1.3620  -5.0844
H  -0.7578   1.2561  -5.5146
H  -0.7513   2.0442  -5.2744
H  -1.5069   1.7191  -5.2284
H   0.0000   4.3043   3.7463
H   0.4363   4.4697   3.5205
H   0.3769   1.8076   5.3993
H   1.3445   4.5270   3.2032
H   1.7190   4.6136   2.8847
H   1.1208   2.2674   5.1152
H   0.4363   4.4697   3.5205
H   0.7538   5.6398   0.4327
H   1.3445   4.5270   3.2032
H   0.0000   4.3043   3.7463
H  -0.4363   4.4697   3.5205
H  -0.3769   1.8076   5.3993
H  -1.3445   4.5270   3.2032
H  -1.7190   4.6136   2.8847
H  -1.1208   2.2674   5.1152
H  -0.4363   4.4697   3.5205
H  -0.7538   5.6398   0.4327
H  -1.3445   4.5270   3.2032
H   1.7190   4.6136   2.8847
H   1.5056   4.8758   2.5538
H   1.3537   2.8772   4.7383
H   1.1309   5.1337   2.2201
H   0.9203   5.3206   1.8457
H   1.0695   3.6211   4.2785
H   1.5056   4.8758   2.5538
H   1.1206   5.5867  -0.3091
H   1.1309   5.1337   2.2201
H  -4.5460   0.3821   3.4278
H  -4.5589   0.9409   3.3006
H  -1.3537   2.8772   4.7383
H  -3.1387   4.6589   1.0027
H  -2.8096   4.9281   0.6182
H  -1.0695   3.6211   4.2785
H  -4.5589   0.9409   3.3006
H  -5.3484   0.9692  -1.7372
H  -3.1387   4.6589   1.0027
H   2.8096   4.9281   0.6182
H   2.2979   5.1786   0.6816
H   0.4598   3.9980   4.0456
H  -2.2979   5.1786   0.6816
H  -2.8096   4.9281   0.6182
H  -0.4598   3.9980   4.0456
H   2.2979   5.1786   0.6816
H   0.0000   4.2747  -3.7801
H  -2.2979   5.1786   0.6816
H   1.7190  -4.6136   2.8847
H   1.5056  -4.8758   2.5538
H   1.3537  -2.8772   4.7383
H   1.1309  -5.1337   2.2201
H   0.9203  -5.3206   1.8457
H   1.0695  -3.6211   4.2785
H   1.5056  -4.8758   2.5538
H   1.1206  -5.5867  -0.3091
H   1.1309  -5.1337   2.2201
H   0.3515  -2.1450   5.2761
H   0.4939  -2.5644   5.0737
H  -1.3537  -2.8772   4.7383
H   0.6852  -3.0653   4.7641
H   0.8423  -3.4299   4.4821
H  -1.0695  -3.6211   4.2785
H   0.4939  -2.5644   5.0737
H   2.3399  -2.0601   4.7795
H   0.6852  -3.0653   4.7641
H   2.1948  -3.2288   4.1617
H   1.7603  -3.3310   4.2858
H   0.4598  -3.9980   4.0456
H   1.2979  -3.3808   4.4100
H   0.8423  -3.4299   4.4821
H  -0.4598  -3.9980   4.0456
H   1.7603  -3.3310   4.2858
H   2.9269  -2.4099   4.2648
H   1.2979  -3.3808   4.4100
H  -2.8214   1.8075  -4.6190
H  -2.4763   2.1656  -4.6626
H   0.3769   1.8076  -5.3993
H  -1.9906   2.9697  -4.4475
H  -1.6091   3.3098  -4.3610
H   1.1208   2.2674  -5.1152
H  -2.4763   2.1656  -4.6626
H  -4.5793   2.3437  -2.4698
H  -1.9906   2.9697  -4.4475
H  -2.8214   1.8075  -4.6190
H  -3.1329   2.0091  -4.3256
H  -0.3769   1.8076  -5.3993
H  -3.3926   2.3380  -3.9479
H  -3.6660   2.4861  -3.5975
H  -1.1208   2.2674  -5.1152
H  -3.1329   2.0091  -4.3256
H  -5.0206   1.7912  -2.0366
H  -3.3926   2.3380  -3.9479
H   0.0000  -2.3017   5.2215
H   0.7513  -2.0442   5.2744
H   0.7487  -2.7644   4.9356
H   1.5069  -1.7191   5.2284
H   2.2037  -1.3620   5.0844
H   2.1890  -2.1401   4.8156
H   0.7513  -2.0442   5.2744
H   0.7578  -1.2561   5.5146
H   1.5069  -1.7191   5.2284
H   2.9631  -0.8927   4.7943
H   3.5393  -0.4630   4.4521
H   3.4628  -1.3529   4.3291
H   4.0588   0.0000   4.0110
H   4.4729   0.4627   3.5131
H   4.4729  -0.4627   3.5131
H   3.5393  -0.4630   4.4521
H   3.5393   0.4630   4.4521
H   4.0588   0.0000   4.0110
H   2.2037  -1.3620   5.0844
H   2.2803  -0.4698   5.2098
H   2.9631  -0.8927   4.7943
H   2.2803   0.4698   5.2098
H   2.2037   1.3620   5.0844
H   2.9631   0.8927   4.7943
H   2.2803  -0.4698   5.2098
H   1.5202   0.0000   5.5001
H   2.2803   0.4698   5.2098
H   0.0000  -2.3017   5.2215
H  -0.7513  -2.0442   5.2744
H  -0.7487  -2.7644   4.9356
H  -1.5069  -1.7191   5.2284
H  -2.2037  -1.3620   5.0844
H  -2.1890  -2.1401   4.8156
H  -0.7513  -2.0442   5.2744
H  -0.7578  -1.2561   5.5146
H  -1.5069  -1.7191   5.2284
H  -2.9631  -0.8927   4.7943
H  -3.5393  -0.4630   4.4521
H  -3.4628  -1.3529   4.3291
H  -4.0588   0.0000   4.0110
H  -4.4729   0.4627   3.5131
H  -4.4729  -0.4627   3.5131
H  -3.5393  -0.4630   4.4521
H  -3.5393   0.4630   4.4521
H  -4.0588   0.0000   4.0110
H  -2.2037  -1.3620   5.0844
H  -2.2803  -0.4698   5.2098
H  -2.9631  -0.8927   4.7943
H  -2.2803   0.4698   5.2098
H  -2.2037   1.3620   5.0844
H  -2.9631   0.8927   4.7943
H  -2.2803  -0.4698   5.2098
H  -1.5202   0.0000   5.5001
H  -2.2803   0.4698   5.2098
H   4.4729   0.4627   3.5131
H   4.5231   1.2156   3.2598
H   4.9356   0.7487   2.7644
H   4.4706   1.9753   2.9452
H   4.3250   2.6730   2.5906
H   4.8156   2.1890   2.1401
