         642

H   0.0000   3.0000   4.8541
H   0.0000  -3.0000   4.8541
H   0.0000   3.0000  -4.8541
H   0.0000  -3.0000  -4.8541
H   4.8541   0.0000   3.0000
H  -4.8541   0.0000   3.0000
H   4.8541   0.0000  -3.0000
H  -4.8541   0.0000  -3.0000
H   3.0000   4.8541   0.0000
H  -3.0000   4.8541   0.0000
H   3.0000  -4.8541   0.0000
H  -3.0000  -4.8541   0.0000
H   0.0000   0.0000   5.7063
H   2.8532   1.7634   4.6165
H  -2.8532   1.7634   4.6165
H   1.7634   4.6165   2.8532
H  -1.7634   4.6165   2.8532
H   2.8532  -1.7634   4.6165
H  -2.8532  -1.7634   4.6165
H   1.7634  -4.6165   2.8532
H  -1.7634  -4.6165   2.8532
H   0.0000   0.0000  -5.7063
H   2.8532   1.7634  -4.6165
H  -2.8532   1.7634  -4.6165
H   1.7634   4.6165  -2.8532
H  -1.7634   4.6165  -2.8532
H   2.8532  -1.7634  -4.6165
H  -2.8532  -1.7634  -4.6165
H   1.7634  -4.6165  -2.8532
H  -1.7634  -4.6165  -2.8532
H   5.7063   0.0000   0.0000
H   4.6165   2.8532   1.7634
H   4.6165  -2.8532   1.7634
H  -5.7063   0.0000   0.0000
H  -4.6165   2.8532   1.7634
H  -4.6165  -2.8532   1.7634
H   4.6165   2.8532  -1.7634
H   4.6165  -2.8532  -1.7634
H  -4.6165   2.8532  -1.7634
H  -4.6165  -2.8532  -1.7634
H   0.0000   5.7063   0.0000
H   0.0000  -5.7063   0.0000
H   0.0000   1.5594   5.4891
H   1.4830   2.4759   4.9227
H  -1.4830   2.4759   4.9227
H   0.9166   3.9589   4.0061
H  -0.9166   3.9589   4.0061
H   0.0000  -1.5594   5.4891
H   1.4830  -2.4759   4.9227
H  -1.4830  -2.4759   4.9227
H   0.9166  -3.9589   4.0061
H  -0.9166  -3.9589   4.0061
H   0.0000   1.5594  -5.4891
H   1.4830   2.4759  -4.9227
H  -1.4830   2.4759  -4.9227
H   0.9166   3.9589  -4.0061
H  -0.9166   3.9589  -4.0061
H   0.0000  -1.5594  -5.4891
H   1.4830  -2.4759  -4.9227
H  -1.4830  -2.4759  -4.9227
H   0.9166  -3.9589  -4.0061
H  -0.9166  -3.9589  -4.0061
H   4.0061   0.9166   3.9589
H   4.0061  -0.9166   3.9589
H   5.4891   0.0000   1.5594
H   4.9227   1.4830   2.4759
H   4.9227  -1.4830   2.4759
H  -4.0061   0.9166   3.9589
H  -4.0061  -0.9166   3.9589
H  -5.4891   0.0000   1.5594
H  -4.9227   1.4830   2.4759
H  -4.9227  -1.4830   2.4759
H   4.0061   0.9166  -3.9589
H   4.0061  -0.9166  -3.9589
H   5.4891   0.0000  -1.5594
H   4.9227   1.4830  -2.4759
H   4.9227  -1.4830  -2.4759
H  -4.0061   0.9166  -3.9589
H  -4.0061  -0.9166  -3.9589
H  -5.4891   0.0000  -1.5594
H  -4.9227   1.4830  -2.4759
H  -4.9227  -1.4830  -2.4759
H   2.4759   4.9227   1.4830
H   2.4759   4.9227  -1.4830
H   3.9589   4.0061   0.9166
H   3.9589   4.0061  -0.9166
H   1.5594   5.4891   0.0000
H  -2.4759   4.9227   1.4830
H  -2.4759   4.9227  -1.4830
H  -3.9589   4.0061   0.9166
H  -3.9589   4.0061  -0.9166
H  -1.5594   5.4891   0.0000
H   2.4759  -4.9227   1.4830
H   2.4759  -4.9227  -1.4830
H   3.9589  -4.0061   0.9166
H   3.9589  -4.0061  -0.9166
H   1.5594  -5.4891   0.0000
H  -2.4759  -4.9227   1.4830
H  -2.4759  -4.9227  -1.4830
H  -3.9589  -4.0061   0.9166
H  -3.9589  -4.0061  -0.9166
H  -1.5594  -5.4891   0.0000
H   1.5000   0.9271   5.4271
H  -1.5000   0.9271   5.4271
H   1.5000  -0.9271   5.4271
H  -1.5000  -0.9271   5.4271
H   2.4271   3.3541   3.9271
H   3.0000   0.0000   4.8541
H   3.9271   2.4271   3.3541
H  -2.4271   3.3541   3.9271
H  -3.0000   0.0000   4.8541
H  -3.9271   2.4271   3.3541
H   0.0000   4.8541   3.0000
H   3.3541   3.9271   2.4271
H   0.9271   5.4271   1.5000
H  -3.3541   3.9271   2.4271
H  -0.9271   5.4271   1.5000
H   2.4271  -3.3541   3.9271
H   3.9271  -2.4271   3.3541
H  -2.4271  -3.3541   3.9271
H  -3.9271  -2.4271   3.3541
H   0.0000  -4.8541   3.0000
H   3.3541  -3.9271   2.4271
H   0.9271  -5.4271   1.5000
H  -3.3541  -3.9271   2.4271
H  -0.9271  -5.4271   1.5000
H   1.5000   0.9271  -5.4271
H  -1.5000   0.9271  -5.4271
H   1.5000  -0.9271  -5.4271
H  -1.5000  -0.9271  -5.4271
H   2.4271   3.3541  -3.9271
H   3.0000   0.0000  -4.8541
H   3.9271   2.4271  -3.3541
H  -2.4271   3.3541  -3.9271
H  -3.0000   0.0000  -4.8541
H  -3.9271   2.4271  -3.3541
H   0.0000   4.8541  -3.0000
H   3.3541   3.9271  -2.4271
H   0.9271   5.4271  -1.5000
H  -3.3541   3.9271  -2.4271
H  -0.9271   5.4271  -1.5000
H   2.4271  -3.3541  -3.9271
H   3.9271  -2.4271  -3.3541
H  -2.4271  -3.3541  -3.9271
H  -3.9271  -2.4271  -3.3541
H   0.0000  -4.8541  -3.0000
H   3.3541  -3.9271  -2.4271
H   0.9271  -5.4271  -1.5000
H  -3.3541  -3.9271  -2.4271
H  -0.9271  -5.4271  -1.5000
H   5.4271   1.5000   0.9271
H   5.4271  -1.5000   0.9271
H   5.4271   1.5000  -0.9271
H   5.4271  -1.5000  -0.9271
H   4.8541   3.0000   0.0000
H   4.8541  -3.0000   0.0000
H  -5.4271   1.5000   0.9271
H  -5.4271  -1.5000   0.9271
H  -5.4271   1.5000  -0.9271
H  -5.4271  -1.5000  -0.9271
H  -4.8541   3.0000   0.0000
H  -4.8541  -3.0000   0.0000
H   0.0000   2.3017   5.2215
H   0.7487   2.7644   4.9356
H  -0.7487   2.7644   4.9356
H   0.4627   3.5131   4.4729
H  -0.4627   3.5131   4.4729
H   0.0000  -2.3017   5.2215
H   0.7487  -2.7644   4.9356
H  -0.7487  -2.7644   4.9356
H   0.4627  -3.5131   4.4729
H  -0.4627  -3.5131   4.4729
H   0.0000   2.3017  -5.2215
H   0.7487   2.7644  -4.9356
H  -0.7487   2.7644  -4.9356
H   0.4627   3.5131  -4.4729
H  -0.4627   3.5131  -4.4729
H   0.0000  -2.3017  -5.2215
H   0.7487  -2.7644  -4.9356
H  -0.7487  -2.7644  -4.9356
H   0.4627  -3.5131  -4.4729
H  -0.4627  -3.5131  -4.4729
H   4.4729   0.4627   3.5131
H   4.4729  -0.4627   3.5131
H   5.2215   0.0000   2.3017
H   4.9356   0.7487   2.7644
H   4.9356  -0.7487   2.7644
H  -4.4729   0.4627   3.5131
H  -4.4729  -0.4627   3.5131
H  -5.2215   0.0000   2.3017
H  -4.9356   0.7487   2.7644
H  -4.9356  -0.7487   2.7644
H   4.4729   0.4627  -3.5131
H   4.4729  -0.4627  -3.5131
H   5.2215   0.0000  -2.3017
H   4.9356   0.7487  -2.7644
H   4.9356  -0.7487  -2.7644
H  -4.4729   0.4627  -3.5131
H  -4.4729  -0.4627  -3.5131
H  -5.2215   0.0000  -2.3017
H  -4.9356   0.7487  -2.7644
H  -4.9356  -0.7487  -2.7644
H   2.7644   4.9356   0.7487
H   2.7644   4.9356  -0.7487
H   3.5131   4.4729   0.4627
H   3.5131   4.4729  -0.4627
H   2.3017   5.2215   0.0000
H  -2.7644   4.9356   0.7487
H  -2.7644   4.9356  -0.7487
H  -3.5131   4.4729   0.4627
H  -3.5131   4.4729  -0.4627
H  -2.3017   5.2215   0.0000
H   2.7644  -4.9356   0.7487
H   2.7644  -4.9356  -0.7487
H   3.5131  -4.4729   0.4627
H   3.5131  -4.4729  -0.4627
H   2.3017  -5.2215   0.0000
H  -2.7644  -4.9356   0.7487
H  -2.7644  -4.9356  -0.7487
H  -3.5131  -4.4729   0.4627
H  -3.5131  -4.4729  -0.4627
H  -2.3017  -5.2215   0.0000
H   0.0000   0.7872   5.6518
H   0.0000  -0.7872   5.6518
H   0.7593   0.4693   5.6361
H  -0.7593   0.4693   5.6361
H   0.7593  -0.4693   5.6361
H  -0.7593  -0.4693   5.6361
H   2.1890   2.1401   4.8156
H   3.4628   1.3529   4.3291
H   2.2037   1.3620   5.0844
H   2.6730   2.5906   4.3250
H   2.9631   0.8927   4.7943
H   3.4324   2.1213   4.0350
H  -2.1890   2.1401   4.8156
H  -3.4628   1.3529   4.3291
H  -2.2037   1.3620   5.0844
H  -2.6730   2.5906   4.3250
H  -2.9631   0.8927   4.7943
H  -3.4324   2.1213   4.0350
H   1.3529   4.3291   3.4628
H   2.1401   4.8156   2.1890
H   2.1213   4.0350   3.4324
H   0.8927   4.7943   2.9631
H   2.5906   4.3250   2.6730
H   1.3620   5.0844   2.2037
H  -1.3529   4.3291   3.4628
H  -2.1401   4.8156   2.1890
H  -2.1213   4.0350   3.4324
H  -0.8927   4.7943   2.9631
H  -2.5906   4.3250   2.6730
H  -1.3620   5.0844   2.2037
H   2.1890  -2.1401   4.8156
H   3.4628  -1.3529   4.3291
H   2.2037  -1.3620   5.0844
H   2.9631  -0.8927   4.7943
H   2.6730  -2.5906   4.3250
H   3.4324  -2.1213   4.0350
H  -2.1890  -2.1401   4.8156
H  -3.4628  -1.3529   4.3291
H  -2.2037  -1.3620   5.0844
H  -2.9631  -0.8927   4.7943
H  -2.6730  -2.5906   4.3250
H  -3.4324  -2.1213   4.0350
H   1.3529  -4.3291   3.4628
H   2.1401  -4.8156   2.1890
H   2.1213  -4.0350   3.4324
H   0.8927  -4.7943   2.9631
H   2.5906  -4.3250   2.6730
H   1.3620  -5.0844   2.2037
H  -1.3529  -4.3291   3.4628
H  -2.1401  -4.8156   2.1890
H  -2.1213  -4.0350   3.4324
H  -0.8927  -4.7943   2.9631
H  -2.5906  -4.3250   2.6730
H  -1.3620  -5.0844   2.2037
H   0.0000   0.7872  -5.6518
H   0.0000  -0.7872  -5.6518
H   0.7593   0.4693  -5.6361
H  -0.7593   0.4693  -5.6361
H   0.7593  -0.4693  -5.6361
H  -0.7593  -0.4693  -5.6361
H   2.1890   2.1401  -4.8156
H   3.4628   1.3529  -4.3291
H   2.2037   1.3620  -5.0844
H   2.6730   2.5906  -4.3250
H   2.9631   0.8927  -4.7943
H   3.4324   2.1213  -4.0350
H  -2.1890   2.1401  -4.8156
H  -3.4628   1.3529  -4.3291
H  -2.2037   1.3620  -5.0844
H  -2.6730   2.5906  -4.3250
H  -2.9631   0.8927  -4.7943
H  -3.4324   2.1213  -4.0350
H   1.3529   4.3291  -3.4628
H   2.1401   4.8156  -2.1890
H   2.1213   4.0350  -3.4324
H   0.8927   4.7943  -2.9631
H   2.5906   4.3250  -2.6730
H   1.3620   5.0844  -2.2037
H  -1.3529   4.3291  -3.4628
H  -2.1401   4.8156  -2.1890
H  -2.1213   4.0350  -3.4324
H  -0.8927   4.7943  -2.9631
H  -2.5906   4.3250  -2.6730
H  -1.3620   5.0844  -2.2037
H   2.1890  -2.1401  -4.8156
H   3.4628  -1.3529  -4.3291
H   2.2037  -1.3620  -5.0844
H   2.9631  -0.8927  -4.7943
H   2.6730  -2.5906  -4.3250
H   3.4324  -2.1213  -4.0350
H  -2.1890  -2.1401  -4.8156
H  -3.4628  -1.3529  -4.3291
H  -2.2037  -1.3620  -5.0844
H  -2.9631  -0.8927  -4.7943
H  -2.6730  -2.5906  -4.3250
H  -3.4324  -2.1213  -4.0350
H   1.3529  -4.3291  -3.4628
H   2.1401  -4.8156  -2.1890
H   2.1213  -4.0350  -3.4324
H   0.8927  -4.7943  -2.9631
H   2.5906  -4.3250  -2.6730
H   1.3620  -5.0844  -2.2037
H  -1.3529  -4.3291  -3.4628
H  -2.1401  -4.8156  -2.1890
H  -2.1213  -4.0350  -3.4324
H  -0.8927  -4.7943  -2.9631
H  -2.5906  -4.3250  -2.6730
H  -1.3620  -5.0844  -2.2037
H   5.6518   0.0000   0.7872
H   5.6518   0.0000  -0.7872
H   5.6361   0.7593   0.4693
H   5.6361  -0.7593   0.4693
H   5.6361   0.7593  -0.4693
H   5.6361  -0.7593  -0.4693
H   4.8156   2.1890   2.1401
H   4.3291   3.4628   1.3529
H   4.3250   2.6730   2.5906
H   4.0350   3.4324   2.1213
H   5.0844   2.2037   1.3620
H   4.7943   2.9631   0.8927
H   4.8156  -2.1890   2.1401
H   4.3291  -3.4628   1.3529
H   4.3250  -2.6730   2.5906
H   4.0350  -3.4324   2.1213
H   5.0844  -2.2037   1.3620
H   4.7943  -2.9631   0.8927
H  -5.6518   0.0000   0.7872
H  -5.6518   0.0000  -0.7872
H  -5.6361   0.7593   0.4693
H  -5.6361  -0.7593   0.4693
H  -5.6361   0.7593  -0.4693
H  -5.6361  -0.7593  -0.4693
H  -4.8156   2.1890   2.1401
H  -4.3291   3.4628   1.3529
H  -4.3250   2.6730   2.5906
H  -4.0350   3.4324   2.1213
H  -5.0844   2.2037   1.3620
H  -4.7943   2.9631   0.8927
H  -4.8156  -2.1890   2.1401
H  -4.3291  -3.4628   1.3529
H  -4.3250  -2.6730   2.5906
H  -4.0350  -3.4324   2.1213
H  -5.0844  -2.2037   1.3620
H  -4.7943  -2.9631   0.8927
H   4.8156   2.1890  -2.1401
H   4.3291   3.4628  -1.3529
H   4.3250   2.6730  -2.5906
H   4.0350   3.4324  -2.1213
H   5.0844   2.2037  -1.3620
H   4.7943   2.9631  -0.8927
H   4.8156  -2.1890  -2.1401
H   4.3291  -3.4628  -1.3529
H   4.3250  -2.6730  -2.5906
H   4.0350  -3.4324  -2.1213
H   5.0844  -2.2037  -1.3620
H   4.7943  -2.9631  -0.8927
H  -4.8156   2.1890  -2.1401
H  -4.3291   3.4628  -1.3529
H  -4.3250   2.6730  -2.5906
H  -4.0350   3.4324  -2.1213
H  -5.0844   2.2037  -1.3620
H  -4.7943   2.9631  -0.8927
H  -4.8156  -2.1890  -2.1401
H  -4.3291  -3.4628  -1.3529
H  -4.3250  -2.6730  -2.5906
H  -4.0350  -3.4324  -2.1213
H  -5.0844  -2.2037  -1.3620
H  -4.7943  -2.9631  -0.8927
H   0.7872   5.6518   0.0000
H  -0.7872   5.6518   0.0000
H   0.4693   5.6361   0.7593
H  -0.4693   5.6361   0.7593
H   0.4693   5.6361  -0.7593
H  -0.4693   5.6361  -0.7593
H   0.7872  -5.6518   0.0000
H  -0.7872  -5.6518   0.0000
H   0.4693  -5.6361   0.7593
H  -0.4693  -5.6361   0.7593
H   0.4693  -5.6361  -0.7593
H  -0.4693  -5.6361  -0.7593
H   0.7513   2.0442   5.2744
H  -0.7513   2.0442   5.2744
H   0.7578   1.2561   5.5146
H  -0.7578   1.2561   5.5146
H   1.2156   3.2598   4.5231
H   1.5069   1.7191   5.2284
H   1.9753   2.9452   4.4706
H  -1.2156   3.2598   4.5231
H  -1.5069   1.7191   5.2284
H  -1.9753   2.9452   4.4706
H   0.0000   4.0110   4.0588
H   1.6891   3.6944   4.0076
H   0.4630   4.4521   3.5393
H  -1.6891   3.6944   4.0076
H  -0.4630   4.4521   3.5393
H   0.7513  -2.0442   5.2744
H  -0.7513  -2.0442   5.2744
H   0.7578  -1.2561   5.5146
H  -0.7578  -1.2561   5.5146
H   1.2156  -3.2598   4.5231
H   1.5069  -1.7191   5.2284
H   1.9753  -2.9452   4.4706
H  -1.2156  -3.2598   4.5231
H  -1.5069  -1.7191   5.2284
H  -1.9753  -2.9452   4.4706
H   0.0000  -4.0110   4.0588
H   1.6891  -3.6944   4.0076
H   0.4630  -4.4521   3.5393
H  -1.6891  -3.6944   4.0076
H  -0.4630  -4.4521   3.5393
H   0.7513   2.0442  -5.2744
H  -0.7513   2.0442  -5.2744
H   0.7578   1.2561  -5.5146
H  -0.7578   1.2561  -5.5146
H   1.2156   3.2598  -4.5231
H   1.5069   1.7191  -5.2284
H   1.9753   2.9452  -4.4706
H  -1.2156   3.2598  -4.5231
H  -1.5069   1.7191  -5.2284
H  -1.9753   2.9452  -4.4706
H   0.0000   4.0110  -4.0588
H   1.6891   3.6944  -4.0076
H   0.4630   4.4521  -3.5393
H  -1.6891   3.6944  -4.0076
H  -0.4630   4.4521  -3.5393
H   0.7513  -2.0442  -5.2744
H  -0.7513  -2.0442  -5.2744
H   0.7578  -1.2561  -5.5146
H  -0.7578  -1.2561  -5.5146
H   1.2156  -3.2598  -4.5231
H   1.5069  -1.7191  -5.2284
H   1.9753  -2.9452  -4.4706
H  -1.2156  -3.2598  -4.5231
H  -1.5069  -1.7191  -5.2284
H  -1.9753  -2.9452  -4.4706
H   0.0000  -4.0110  -4.0588
H   1.6891  -3.6944  -4.0076
H   0.4630  -4.4521  -3.5393
H  -1.6891  -3.6944  -4.0076
H  -0.4630  -4.4521  -3.5393
H   4.0588   0.0000   4.0110
H   4.5231   1.2156   3.2598
H   3.5393   0.4630   4.4521
H   4.0076   1.6891   3.6944
H   4.5231  -1.2156   3.2598
H   3.5393  -0.4630   4.4521
H   4.0076  -1.6891   3.6944
H   5.2744   0.7513   2.0442
H   5.2744  -0.7513   2.0442
H   5.5146   0.7578   1.2561
H   5.5146  -0.7578   1.2561
H   4.4706   1.9753   2.9452
H   5.2284   1.5069   1.7191
H   4.4706  -1.9753   2.9452
H   5.2284  -1.5069   1.7191
H  -4.0588   0.0000   4.0110
H  -4.5231   1.2156   3.2598
H  -3.5393   0.4630   4.4521
H  -4.0076   1.6891   3.6944
H  -4.5231  -1.2156   3.2598
H  -3.5393  -0.4630   4.4521
H  -4.0076  -1.6891   3.6944
H  -5.2744   0.7513   2.0442
H  -5.2744  -0.7513   2.0442
H  -5.5146   0.7578   1.2561
H  -5.5146  -0.7578   1.2561
H  -4.4706   1.9753   2.9452
H  -5.2284   1.5069   1.7191
H  -4.4706  -1.9753   2.9452
H  -5.2284  -1.5069   1.7191
H   4.0588   0.0000  -4.0110
H   4.5231   1.2156  -3.2598
H   3.5393   0.4630  -4.4521
H   4.0076   1.6891  -3.6944
H   4.5231  -1.2156  -3.2598
H   3.5393  -0.4630  -4.4521
H   4.0076  -1.6891  -3.6944
H   5.2744   0.7513  -2.0442
H   5.2744  -0.7513  -2.0442
H   5.5146   0.7578  -1.2561
H   5.5146  -0.7578  -1.2561
H   4.4706   1.9753  -2.9452
H   5.2284   1.5069  -1.7191
H   4.4706  -1.9753  -2.9452
H   5.2284  -1.5069  -1.7191
H  -4.0588   0.0000  -4.0110
H  -4.5231   1.2156  -3.2598
H  -3.5393   0.4630  -4.4521
H  -4.0076   1.6891  -3.6944
H  -4.5231  -1.2156  -3.2598
H  -3.5393  -0.4630  -4.4521
H  -4.0076  -1.6891  -3.6944
H  -5.2744   0.7513  -2.0442
H  -5.2744  -0.7513  -2.0442
H  -5.5146   0.7578  -1.2561
H  -5.5146  -0.7578  -1.2561
H  -4.4706   1.9753  -2.9452
H  -5.2284   1.5069  -1.7191
H  -4.4706  -1.9753  -2.9452
H  -5.2284  -1.5069  -1.7191
H   3.2598   4.5231   1.2156
H   2.0442   5.2744   0.7513
H   2.9452   4.4706   1.9753
H   1.7191   5.2284   1.5069
H   3.2598   4.5231  -1.2156
H   2.0442   5.2744  -0.7513
H   2.9452   4.4706  -1.9753
H   1.7191   5.2284  -1.5069
H   4.0110   4.0588   0.0000
H   3.6944   4.0076   1.6891
H   4.4521   3.5393   0.4630
H   3.6944   4.0076  -1.6891
H   4.4521   3.5393  -0.4630
H   1.2561   5.5146   0.7578
H   1.2561   5.5146  -0.7578
H  -3.2598   4.5231   1.2156
H  -2.0442   5.2744   0.7513
H  -2.9452   4.4706   1.9753
H  -1.7191   5.2284   1.5069
H  -3.2598   4.5231  -1.2156
H  -2.0442   5.2744  -0.7513
H  -2.9452   4.4706  -1.9753
H  -1.7191   5.2284  -1.5069
H  -4.0110   4.0588   0.0000
H  -3.6944   4.0076   1.6891
H  -4.4521   3.5393   0.4630
H  -3.6944   4.0076  -1.6891
H  -4.4521   3.5393  -0.4630
H  -1.2561   5.5146   0.7578
H  -1.2561   5.5146  -0.7578
H   3.2598  -4.5231   1.2156
H   2.0442  -5.2744   0.7513
H   2.9452  -4.4706   1.9753
H   1.7191  -5.2284   1.5069
H   3.2598  -4.5231  -1.2156
H   2.0442  -5.2744  -0.7513
H   2.9452  -4.4706  -1.9753
H   1.7191  -5.2284  -1.5069
H   4.0110  -4.0588   0.0000
H   3.6944  -4.0076   1.6891
H   4.4521  -3.5393   0.4630
H   3.6944  -4.0076  -1.6891
H   4.4521  -3.5393  -0.4630
H   1.2561  -5.5146   0.7578
H   1.2561  -5.5146  -0.7578
H  -3.2598  -4.5231   1.2156
H  -2.0442  -5.2744   0.7513
H  -2.9452  -4.4706   1.9753
H  -1.7191  -5.2284   1.5069
H  -3.2598  -4.5231  -1.2156
H  -2.0442  -5.2744  -0.7513
H  -2.9452  -4.4706  -1.9753
H  -1.7191  -5.2284  -1.5069
H  -4.0110  -4.0588   0.0000
H  -3.6944  -4.0076   1.6891
H  -4.4521  -3.5393   0.4630
H  -3.6944  -4.0076  -1.6891
H  -4.4521  -3.5393  -0.4630
H  -1.2561  -5.5146   0.7578
H  -1.2561  -5.5146  -0.7578
H   1.5202   0.0000   5.5001
H   2.2803   0.4698   5.2098
H  -1.5202   0.0000   5.5001
H  -2.2803   0.4698   5.2098
H   2.2803  -0.4698   5.2098
H  -2.2803  -0.4698   5.2098
H   3.2198   2.9295   3.6896
H   2.9295   3.6896   3.2198
H   3.6896   3.2198   2.9295
H  -3.2198   2.9295   3.6896
H  -2.9295   3.6896   3.2198
H  -3.6896   3.2198   2.9295
H   0.4698   5.2098   2.2803
H  -0.4698   5.2098   2.2803
H   0.0000   5.5001   1.5202
H   3.2198  -2.9295   3.6896
H   2.9295  -3.6896   3.2198
H   3.6896  -3.2198   2.9295
H  -3.2198  -2.9295   3.6896
H  -2.9295  -3.6896   3.2198
H  -3.6896  -3.2198   2.9295
H   0.4698  -5.2098   2.2803
H  -0.4698  -5.2098   2.2803
H   0.0000  -5.5001   1.5202
H   1.5202   0.0000  -5.5001
H   2.2803   0.4698  -5.2098
H  -1.5202   0.0000  -5.5001
H  -2.2803   0.4698  -5.2098
H   2.2803  -0.4698  -5.2098
H  -2.2803  -0.4698  -5.2098
H   3.2198   2.9295  -3.6896
H   2.9295   3.6896  -3.2198
H   3.6896   3.2198  -2.9295
H  -3.2198   2.9295  -3.6896
H  -2.9295   3.6896  -3.2198
H  -3.6896   3.2198  -2.9295
H   0.4698   5.2098  -2.2803
H  -0.4698   5.2098  -2.2803
H   0.0000   5.5001  -1.5202
H   3.2198  -2.9295  -3.6896
H   2.9295  -3.6896  -3.2198
H   3.6896  -3.2198  -2.9295
H  -3.2198  -2.9295  -3.6896
H  -2.9295  -3.6896  -3.2198
H  -3.6896  -3.2198  -2.9295
H   0.4698  -5.2098  -2.2803
H  -0.4698  -5.2098  -2.2803
H   0.0000  -5.5001  -1.5202
H   5.5001   1.5202   0.0000
H   5.2098   2.2803   0.4698
H   5.5001  -1.5202   0.0000
H   5.2098  -2.2803   0.4698
H   5.2098   2.2803  -0.4698
H   5.2098  -2.2803  -0.4698
H  -5.5001   1.5202   0.0000
H  -5.2098   2.2803   0.4698
H  -5.5001  -1.5202   0.0000
H  -5.2098  -2.2803   0.4698
H  -5.2098   2.2803  -0.4698
H  -5.2098  -2.2803  -0.4698
